tools/ieee8500_legal_mixed_m1_snapshot/files/RESITING_SCREEN/IEEE8500_LEGAL_MIXED_M1_FULL_MAY01_20260916/PCC_OVERLAY.dss
New Transformer.pcc8500_aidc_aidc01_tx Phases=3 Windings=2 XHL=5.75 %Rs=[0.8 0.2] %NoLoadLoss=0 %Imag=0
~ Buses=[m1026834.1.2.3 pcc8500_aidc_aidc01_lv.1.2.3] Conns=[wye wye] kVs=[12.47 0.48] kVAs=[1500 1500]
New Transformer.pcc8500_mess_aidc01_tx Phases=3 Windings=2 XHL=5.75 %Rs=[0.8 0.2] %NoLoadLoss=0 %Imag=0
~ Buses=[l3234149.1.2.3 pcc8500_mess_aidc01_lv.1.2.3] Conns=[wye wye] kVs=[12.47 0.48] kVAs=[750 750]
New Transformer.pcc8500_aidc_aidc02_tx Phases=3 Windings=2 XHL=5.75 %Rs=[0.8 0.2] %NoLoadLoss=0 %Imag=0
~ Buses=[e184626.1.2.3 pcc8500_aidc_aidc02_lv.1.2.3] Conns=[wye wye] kVs=[12.47 0.48] kVAs=[1500 1500]
New Transformer.pcc8500_mess_aidc02_tx Phases=3 Windings=2 XHL=5.75 %Rs=[0.8 0.2] %NoLoadLoss=0 %Imag=0
~ Buses=[e182733.1.2.3 pcc8500_mess_aidc02_lv.1.2.3] Conns=[wye wye] kVs=[12.47 0.48] kVAs=[750 750]
New Transformer.pcc8500_aidc_aidc03_tx Phases=3 Windings=2 XHL=5.75 %Rs=[0.8 0.2] %NoLoadLoss=0 %Imag=0
~ Buses=[l3234149.1.2.3 pcc8500_aidc_aidc03_lv.1.2.3] Conns=[wye wye] kVs=[12.47 0.48] kVAs=[1500 1500]
New Transformer.pcc8500_mess_aidc03_tx Phases=3 Windings=2 XHL=5.75 %Rs=[0.8 0.2] %NoLoadLoss=0 %Imag=0
~ Buses=[m1027055.1.2.3 pcc8500_mess_aidc03_lv.1.2.3] Conns=[wye wye] kVs=[12.47 0.48] kVAs=[750 750]
New Transformer.pcc8500_aidc_aidc04_tx Phases=3 Windings=2 XHL=5.75 %Rs=[0.8 0.2] %NoLoadLoss=0 %Imag=0
~ Buses=[m4113347.1.2.3 pcc8500_aidc_aidc04_lv.1.2.3] Conns=[wye wye] kVs=[12.47 0.48] kVAs=[1500 1500]
New Transformer.pcc8500_mess_aidc04_tx Phases=3 Windings=2 XHL=5.75 %Rs=[0.8 0.2] %NoLoadLoss=0 %Imag=0
~ Buses=[m1069411.1.2.3 pcc8500_mess_aidc04_lv.1.2.3] Conns=[wye wye] kVs=[12.47 0.48] kVAs=[750 750]
New Transformer.pcc8500_aidc_aidc05_tx Phases=3 Windings=2 XHL=5.75 %Rs=[0.8 0.2] %NoLoadLoss=0 %Imag=0
~ Buses=[m1047763.1.2.3 pcc8500_aidc_aidc05_lv.1.2.3] Conns=[wye wye] kVs=[12.47 0.48] kVAs=[1500 1500]
New Transformer.pcc8500_mess_aidc05_tx Phases=3 Windings=2 XHL=5.75 %Rs=[0.8 0.2] %NoLoadLoss=0 %Imag=0
~ Buses=[l2688693.1.2.3 pcc8500_mess_aidc05_lv.1.2.3] Conns=[wye wye] kVs=[12.47 0.48] kVAs=[750 750]
New Transformer.pcc8500_aidc_aidc06_tx Phases=3 Windings=2 XHL=5.75 %Rs=[0.8 0.2] %NoLoadLoss=0 %Imag=0
~ Buses=[m1026780.1.2.3 pcc8500_aidc_aidc06_lv.1.2.3] Conns=[wye wye] kVs=[12.47 0.48] kVAs=[1500 1500]
New Transformer.pcc8500_mess_aidc06_tx Phases=3 Windings=2 XHL=5.75 %Rs=[0.8 0.2] %NoLoadLoss=0 %Imag=0
~ Buses=[m1142814.1.2.3 pcc8500_mess_aidc06_lv.1.2.3] Conns=[wye wye] kVs=[12.47 0.48] kVAs=[750 750]
New Transformer.pcc8500_aidc_aidc07_tx Phases=3 Windings=2 XHL=5.75 %Rs=[0.8 0.2] %NoLoadLoss=0 %Imag=0
~ Buses=[n1142100.1.2.3 pcc8500_aidc_aidc07_lv.1.2.3] Conns=[wye wye] kVs=[12.47 0.48] kVAs=[1500 1500]
New Transformer.pcc8500_mess_aidc07_tx Phases=3 Windings=2 XHL=5.75 %Rs=[0.8 0.2] %NoLoadLoss=0 %Imag=0
~ Buses=[m1026690.1.2.3 pcc8500_mess_aidc07_lv.1.2.3] Conns=[wye wye] kVs=[12.47 0.48] kVAs=[750 750]
New Transformer.pcc8500_aidc_aidc08_tx Phases=3 Windings=2 XHL=5.75 %Rs=[0.8 0.2] %NoLoadLoss=0 %Imag=0
~ Buses=[l3122821.1.2.3 pcc8500_aidc_aidc08_lv.1.2.3] Conns=[wye wye] kVs=[12.47 0.48] kVAs=[1500 1500]
New Transformer.pcc8500_mess_aidc08_tx Phases=3 Windings=2 XHL=5.75 %Rs=[0.8 0.2] %NoLoadLoss=0 %Imag=0
~ Buses=[l3123452.1.2.3 pcc8500_mess_aidc08_lv.1.2.3] Conns=[wye wye] kVs=[12.47 0.48] kVAs=[750 750]
New Transformer.pcc8500_aidc_aidc09_tx Phases=3 Windings=2 XHL=5.75 %Rs=[0.8 0.2] %NoLoadLoss=0 %Imag=0
~ Buses=[m1047566.1.2.3 pcc8500_aidc_aidc09_lv.1.2.3] Conns=[wye wye] kVs=[12.47 0.48] kVAs=[1500 1500]
New Transformer.pcc8500_mess_aidc09_tx Phases=3 Windings=2 XHL=5.75 %Rs=[0.8 0.2] %NoLoadLoss=0 %Imag=0
~ Buses=[l2728247.1.2.3 pcc8500_mess_aidc09_lv.1.2.3] Conns=[wye wye] kVs=[12.47 0.48] kVAs=[750 750]
New Transformer.pcc8500_aidc_aidc10_tx Phases=3 Windings=2 XHL=5.75 %Rs=[0.8 0.2] %NoLoadLoss=0 %Imag=0
~ Buses=[l2814529.1.2.3 pcc8500_aidc_aidc10_lv.1.2.3] Conns=[wye wye] kVs=[12.47 0.48] kVAs=[1500 1500]
New Transformer.pcc8500_mess_aidc10_tx Phases=3 Windings=2 XHL=5.75 %Rs=[0.8 0.2] %NoLoadLoss=0 %Imag=0
~ Buses=[l2973833.1.2.3 pcc8500_mess_aidc10_lv.1.2.3] Conns=[wye wye] kVs=[12.47 0.48] kVAs=[750 750]
New Transformer.pcc8500_aidc_aidc11_tx Phases=3 Windings=2 XHL=5.75 %Rs=[0.8 0.2] %NoLoadLoss=0 %Imag=0
~ Buses=[l2992624.1.2.3 pcc8500_aidc_aidc11_lv.1.2.3] Conns=[wye wye] kVs=[12.47 0.48] kVAs=[1500 1500]
New Transformer.pcc8500_mess_aidc11_tx Phases=3 Windings=2 XHL=5.75 %Rs=[0.8 0.2] %NoLoadLoss=0 %Imag=0
~ Buses=[m1047763.1.2.3 pcc8500_mess_aidc11_lv.1.2.3] Conns=[wye wye] kVs=[12.47 0.48] kVAs=[750 750]
New Transformer.pcc8500_aidc_aidc12_tx Phases=3 Windings=2 XHL=5.75 %Rs=[0.8 0.2] %NoLoadLoss=0 %Imag=0
~ Buses=[e182733.1.2.3 pcc8500_aidc_aidc12_lv.1.2.3] Conns=[wye wye] kVs=[12.47 0.48] kVAs=[1500 1500]
New Transformer.pcc8500_mess_aidc12_tx Phases=3 Windings=2 XHL=5.75 %Rs=[0.8 0.2] %NoLoadLoss=0 %Imag=0
~ Buses=[e192258.1.2.3 pcc8500_mess_aidc12_lv.1.2.3] Conns=[wye wye] kVs=[12.47 0.48] kVAs=[750 750]
New Transformer.pcc8500_mess_sta01_tx Phases=1 Windings=2 XHL=5.75 %Rs=[0.8 0.2] %NoLoadLoss=0 %Imag=0
~ Buses=[sx3101194c.1.0 pcc8500_mess_sta01_lv.1.0] Conns=[wye wye] kVs=[0.12008885599144216 0.48] kVAs=[750 750]
New Transformer.pcc8500_mess_sta02_tx Phases=3 Windings=2 XHL=5.75 %Rs=[0.8 0.2] %NoLoadLoss=0 %Imag=0
~ Buses=[m1166366.1.2.3 pcc8500_mess_sta02_lv.1.2.3] Conns=[wye wye] kVs=[12.47 0.48] kVAs=[750 750]
New Transformer.pcc8500_mess_sta03_tx Phases=3 Windings=2 XHL=5.75 %Rs=[0.8 0.2] %NoLoadLoss=0 %Imag=0
~ Buses=[m1009763.1.2.3 pcc8500_mess_sta03_lv.1.2.3] Conns=[wye wye] kVs=[12.47 0.48] kVAs=[750 750]
New Transformer.pcc8500_mess_sta04_tx Phases=3 Windings=2 XHL=5.75 %Rs=[0.8 0.2] %NoLoadLoss=0 %Imag=0
~ Buses=[m1089115.1.2.3 pcc8500_mess_sta04_lv.1.2.3] Conns=[wye wye] kVs=[12.47 0.48] kVAs=[750 750]
New Transformer.pcc8500_mess_sta05_tx Phases=3 Windings=2 XHL=5.75 %Rs=[0.8 0.2] %NoLoadLoss=0 %Imag=0
~ Buses=[l2990826.1.2.3 pcc8500_mess_sta05_lv.1.2.3] Conns=[wye wye] kVs=[12.47 0.48] kVAs=[750 750]
New Transformer.pcc8500_mess_sta06_tx Phases=1 Windings=2 XHL=5.75 %Rs=[0.8 0.2] %NoLoadLoss=0 %Imag=0
~ Buses=[sx3141411c.1.0 pcc8500_mess_sta06_lv.1.0] Conns=[wye wye] kVs=[0.12008885599144216 0.48] kVAs=[750 750]
New Transformer.pcc8500_mess_sta07_tx Phases=3 Windings=2 XHL=5.75 %Rs=[0.8 0.2] %NoLoadLoss=0 %Imag=0
~ Buses=[m1009763.1.2.3 pcc8500_mess_sta07_lv.1.2.3] Conns=[wye wye] kVs=[12.47 0.48] kVAs=[750 750]
New Transformer.pcc8500_mess_sta08_tx Phases=1 Windings=2 XHL=5.75 %Rs=[0.8 0.2] %NoLoadLoss=0 %Imag=0
~ Buses=[sx3027670b.1.0 pcc8500_mess_sta08_lv.1.0] Conns=[wye wye] kVs=[0.12008885599144216 0.48] kVAs=[750 750]
New Transformer.pcc8500_mess_sta09_tx Phases=3 Windings=2 XHL=5.75 %Rs=[0.8 0.2] %NoLoadLoss=0 %Imag=0
~ Buses=[m1026855.1.2.3 pcc8500_mess_sta09_lv.1.2.3] Conns=[wye wye] kVs=[12.47 0.48] kVAs=[750 750]
New Transformer.pcc8500_mess_sta10_tx Phases=3 Windings=2 XHL=5.75 %Rs=[0.8 0.2] %NoLoadLoss=0 %Imag=0
~ Buses=[n1144668.1.2.3 pcc8500_mess_sta10_lv.1.2.3] Conns=[wye wye] kVs=[12.47 0.48] kVAs=[750 750]
New Transformer.pcc8500_mess_sta11_tx Phases=3 Windings=2 XHL=5.75 %Rs=[0.8 0.2] %NoLoadLoss=0 %Imag=0
~ Buses=[r18241.1.2.3 pcc8500_mess_sta11_lv.1.2.3] Conns=[wye wye] kVs=[12.47 0.48] kVAs=[750 750]
New Transformer.pcc8500_mess_sta12_tx Phases=1 Windings=2 XHL=5.75 %Rs=[0.8 0.2] %NoLoadLoss=0 %Imag=0
~ Buses=[sx2767340c.2.0 pcc8500_mess_sta12_lv.1.0] Conns=[wye wye] kVs=[0.12008885599144216 0.48] kVAs=[750 750]
CalcVoltageBases
SetkVBase Bus=pcc8500_mess_sta01_lv kVLN=0.48
SetkVBase Bus=pcc8500_mess_sta06_lv kVLN=0.48
SetkVBase Bus=pcc8500_mess_sta08_lv kVLN=0.48
SetkVBase Bus=pcc8500_mess_sta12_lv kVLN=0.48